<?xml version="1.0" encoding="utf-8"?>
<COLLADA xmlns="http://www.collada.org/2005/11/COLLADASchema" version="1.4.1">
  <asset>
    <contributor>
      <author>Blender User</author>
      <authoring_tool>Blender 2.67.0 r57141</authoring_tool>
    </contributor>
    <created>2016-06-24T16:08:51</created>
    <modified>2016-06-24T16:08:51</modified>
    <unit name="meter" meter="1"/>
    <up_axis>Z_UP</up_axis>
  </asset>
  <library_images/>
  <library_geometries>
    <geometry id="ROBUFAST_v2_AllCATPart-mesh" name="ROBUFAST v2 AllCATPart">
      <mesh>
        <source id="ROBUFAST_v2_AllCATPart-mesh-positions">
          <float_array id="ROBUFAST_v2_AllCATPart-mesh-positions-array" count="44814">-31.54396 -664.0353 -232.0487 138.456 -664.0353 -232.0487 -31.54396 -954.0357 -232.0487 138.456 -954.0357 -232.0487 -34.1985 -957.0228 -231.2984 -69.54393 -957.0533 -231.8819 176.456 -957.0244 -231.5989 141.0717 -957.1098 -231.7485 -509.044 -364.0353 -232.0487 -71.54396 -364.0353 -232.0487 -509.044 -624.0353 -232.0487 -71.54396 -624.0353 -232.0487 -31.54396 -364.0353 -232.0487 138.456 -364.0353 -232.0487 -31.54396 -624.0353 -232.0487 138.456 -624.0353 -232.0487 178.456 -364.0353 -232.0487 615.956 -364.0353 -232.0487 178.456 -624.0353 -232.0487 615.956 -624.0353 -232.0487 -31.54396 -34.03522 -232.0487 138.456 -34.03522 -232.0487 -31.54396 -324.0353 -232.0487 138.456 -324.0353 -232.0487 -69.54396 -662.0353 -231.0942 -34.04396 -949.0354 -230.5487 140.956 -949.0357 -230.5487 176.456 -662.0353 -231.1916 -469.044 -622.0353 -230.5487 -547.044 -662.0354 -231.2987 -69.54396 -326.0353 -230.5487 -547.044 -326.0353 -231.2987 -469.044 -606.0353 -230.5487 575.956 -606.0353 -230.5487 176.4561 -326.0353 -231.4059 176.456 -31.03522 -231.5487 -69.54396 -31.03522 -231.9124 575.956 -622.0353 -230.5487 653.9559 -662.0354 -231.2987 653.956 -326.0353 -231.5487 -71.54396 -1190.036 -232.0487 -71.54396 -1003.036 -232.0487 -71.54396 -1240.036 -232.0487 178.456 -1003.036 -232.0487 178.456 -1190.036 -232.0487 178.456 -953.0357 -232.0487 655.956 -324.0353 -232.0487 178.456 -324.0353 -232.0487 173.456 255.9648 -232.0487 178.456 201.9648 -232.0487 178.456 251.9648 -232.0487 -35.97148 265.8928 -232.0418 -40.40439 320.7616 -232.0359 173.456 -1234.036 -232.0487 173.456 -974.0357 -232.0487 146.7176 -1310.528 -232.0573 -40.32724 -1308.138 -232.0277 -66.54396 -974.0357 -232.0487 -66.54396 -1234.036 -232.0487 -34.04396 420.9648 -232.0487 -39.98172 380.1351 -232.0483 -34.04396 -1399.036 -232.0487 -34.90704 -1246.463 -232.0505 -40.60826 -1370.12 -232.0483 -71.54396 -1414.036 -232.0487 53.45603 -1414.036 -232.0487 140.956 -1399.036 -232.0488 178.456 14.96478 -232.0487 173.456 -4.035217 -232.0487 178.456 -1240.036 -232.0487 169.6525 -1370.459 -232.1167 178.456 -1414.036 -232.0487 -62.94396 -1309.528 -232.0561 -71.54396 -953.0357 -232.0487 -71.54396 -664.0353 -232.0487 141.4081 -1247.994 -232.0451 146.8177 379.8661 -232.0348 140.956 420.9648 -232.0488 141.8562 269.0339 -232.0494 178.456 425.9648 -232.0487 -71.54395 425.9648 -232.0488 169.7858 380.4607 -232.0341 -66.53593 255.8013 -232.0488 -58.42 315.4884 -232.0757 -63.39702 323.4584 -232.0512 -71.54396 251.9648 -232.0487 -71.54396 201.9648 -232.0487 -71.54396 14.96478 -232.0487 -66.54396 -4.035217 -232.0487 152.5769 386.726 -233.0407 161.9871 388.0797 -232.0892 -62.91992 380.4432 -232.0297 -55.38618 387.8278 -232.0209 -45.43397 386.5351 -232.0448 151.4491 257.6738 -232.0472 170.1148 322.1397 -232.0432 163.7777 314.9245 -232.7005 155.8036 313.8719 -232.0632 140.8042 -29.02456 -232.0488 154.2704 -4.703966 -232.0491 142.8063 -14.72077 -232.0531 178.456 -35.03522 -232.0487 -70.87729 -325.3686 -232.0487 -71.54396 -35.03522 -232.0487 -549.044 -324.0353 -232.0487 -34.04396 -29.03522 -232.0487 -34.9453 -16.56744 -232.0468 -45.80002 -5.40054 -232.0525 144.0229 -965.0289 -232.0469 153.0957 -973.1708 -232.0381 151.6872 -1235.671 -232.0454 162.5249 -1302.392 -232.0369 169.7029 -1308.837 -232.0516 -46.49013 -1234.844 -232.0466 -56.9827 -1303.097 -232.0299 -48.37661 -973.5043 -232.0493 -37.75387 -966.3242 -232.053 160.5085 -1376.476 -233.3936 152.5815 -1374.644 -233.0604 147.2486 -1369.057 -232.061 -51.27735 -1376.743 -232.0657 -62.63333 -1370.091 -232.0717 178.456 -664.0353 -232.0487 655.956 -664.0353 -232.0487 -47.2045 256.8782 -232.0477 -47.59237 314.3132 -232.0603 147.4793 320.2571 -232.0498 -549.044 -664.0353 -232.0487 152.5162 -1303.167 -231.9922 -49.60469 -1301.917 -232.0462 140.7938 -949.0493 -222.049 141.3424 -958.9629 -222.0444 146.5646 -968.1699 -222.0405 155.4382 -973.5032 -222.0459 -40.85875 -969.4562 -222.0502 -49.48805 -973.7405 -222.0488 -34.87969 -960.5838 -222.0476 -33.98621 -949.0409 -222.0487 -31.54396 -954.0357 -292.0487 138.456 -954.0357 -292.0487 -71.54396 -364.0353 -292.0487 -509.044 -364.0353 -292.0487 -509.044 -624.0353 -292.0487 -71.54396 -624.0353 -292.0487 138.456 -664.0353 -292.0487 -31.54396 -664.0353 -292.0487 138.456 -364.0353 -292.0487 -31.54396 -364.0353 -292.0487 -31.54396 -624.0353 -292.0487 138.456 -624.0353 -292.0487 615.956 -364.0353 -292.0487 178.456 -364.0353 -292.0487 178.456 -624.0353 -292.0487 615.956 -624.0353 -292.0487 138.456 -34.03522 -292.0487 138.456 -324.0353 -292.0487 -31.54396 -34.03522 -292.0487 -31.54396 -324.0353 -292.0487 -453.044 -606.0353 -214.5487 -186.544 -606.0353 -214.5487 -170.544 -606.0353 -214.5487 277.4561 -606.0353 -214.5487 293.4561 -606.0353 -214.5487 559.956 -606.0353 -214.5487 559.956 -606.0353 -89.54876 575.956 -606.0353 -73.54876 293.4561 -606.0353 -89.54876 277.4561 -606.0353 -89.54876 -170.544 -606.0353 -89.54876 -186.544 -606.0353 -89.54876 -453.044 -606.0353 -89.54876 -469.044 -606.0353 -73.54876 575.956 -622.0353 -73.54876 559.956 -622.0353 -89.54876 559.956 -622.0353 -214.5487 293.4561 -622.0353 -214.5487 277.4561 -622.0353 -214.5487 -170.544 -622.0353 -214.5487 -186.544 -622.0353 -214.5487 -453.044 -622.0353 -214.5487 -469.044 -622.0353 -73.54876 -453.044 -622.0353 -89.54876 -186.544 -622.0353 -89.54876 -170.544 -622.0353 -89.54876 277.4561 -622.0353 -89.54876 293.4561 -622.0353 -89.54876 225.6628 94.54842 182.9534 -122.2246 94.31977 182.953 225.8471 125.3982 182.9964 209.456 125.9648 182.9512 -102.544 125.9648 182.9512 -118.544 125.9648 182.9512 243.7875 93.96477 182.9364 229.7035 91.04346 182.9512 -137.3811 122.9664 182.9363 -118.7944 122.5953 182.9516 -122.8925 125.8558 182.9525 -102.544 90.96477 182.9512 209.456 90.96477 182.9512 225.456 90.96477 182.9512 251.5967 125.9766 181.346 228.6064 125.7308 182.9642 -121.3798 91.34284 182.9392 228.947 94.88053 182.9534 -122.2832 122.1789 182.9527 229.5156 122.6568 182.9515 -118.9572 91.37603 182.9846 -118.544 119.9648 147.9512 -118.544 125.9648 147.9512 -118.5355 127.5726 178.2073 -118.5436 89.35694 178.2073 -118.544 96.96477 147.9512 -118.544 90.96477 147.9512 225.4577 89.75294 178.3371 225.456 96.96477 147.9512 225.456 90.96477 147.9512 225.456 119.9648 147.9512 225.456 125.9648 147.9512 225.4115 127.1827 178.3395 210.2468 248.965 -60.39833 206.1134 248.9839 -61.14786 207.3765 244.4851 -59.72739 210.7633 244.4643 -61.49531 209.5402 248.9718 -64.27749 207.5165 244.4673 -64.45273 210.8091 204.9651 -61.61991 210.647 209.4755 -63.10871 209.1472 204.9562 -64.37657 207.3483 209.4649 -64.15525 206.1091 204.9624 -62.4883 206.4884 209.4716 -60.66358 207.9875 204.9504 -59.64741 209.5542 209.4642 -59.94641 210.4282 7.463991 -60.50345 210.2378 11.96477 -60.53548 207.2709 11.97441 -59.85953 206.3072 7.460085 -60.71812 206.3179 11.96369 -63.21223 210.0619 11.95731 -64.10048 208.7839 7.456637 -64.54922 208.1855 -27.52485 -64.60391 210.5556 -32.03607 -63.08493 210.4882 -27.53218 -60.62929 207.8523 -32.04184 -64.39453 206.6439 -27.53088 -60.39478 206.1766 -32.03447 -61.06622 209.894 -32.02879 -60.00744 210.2023 -1232.538 -64.00009 209.5935 -1237.036 -64.30021 210.4903 -1237.036 -60.74138 206.6638 -1232.54 -63.73456 206.3459 -1237.037 -63.28546 206.6697 -1232.554 -60.16948 207.1111 -1237.049 -59.99839 209.8082 -1232.538 -60.03046 209.8168 -1193.033 -64.10505 209.7027 -1197.51 -64.27463 206.0994 -1197.536 -62.83632 205.9985 -1193.008 -62.42515 207.564 -1197.536 -59.74837 209.9359 -1193.005 -60.15688 210.6945 -1197.532 -60.90536 208.7647 -995.534 -64.57337 210.6734 -1000.043 -63.0623 210.7922 -995.5341 -61.30221 205.9434 -1000.051 -62.82784 206.0707 -995.5284 -60.92882 209.078 -1000.038 -59.64981 209.5069 -956.0288 -64.22963 210.4638 -960.5399 -63.41559 210.7676 -956.0348 -61.43738 206.323 -960.5379 -63.47185 207.6703 -956.0258 -59.64438 209.1235 -960.5385 -59.60754 206.2567 -956.0358 -63.05392 -118.544 -1114.036 182.9512 -118.8148 -1110.953 182.9448 -118.5441 -1115.643 178.2071 -118.544 -1108.036 147.9512 -118.544 -1114.036 147.9512 -118.544 -1085.036 147.9512 -118.5551 -1084.58 182.9512 -118.544 -1079.036 147.9512 -118.5421 -1077.427 178.2073 -118.544 -1079.036 182.9512 -120.665 -1079.987 182.8115 228.9322 -1082.741 182.95 -102.544 -1114.036 182.9512 209.456 -1114.036 182.9512 225.9175 -1113.266 183.044 -122.594 -1082.24 182.9675 -140.0019 -1079.033 182.6875 247.9102 -1111.036 182.5303 228.6995 -1113.856 182.9566 229.2168 -1110.815 182.9585 225.456 -1079.036 182.9512 209.456 -1079.036 182.9512 -102.544 -1079.036 182.9512 242.956 -1082.036 182.9512 229.7455 -1079.104 182.9579 225.6791 -1082.527 182.9512 -123.5149 -1114.022 183.0625 -122.1152 -1110.66 183.0124 225.456 -1085.036 147.9512 225.456 -1079.036 147.9512 225.4139 -1077.82 178.3394 225.4446 -1115.249 178.3386 225.456 -1108.036 147.9512 225.456 -1114.036 147.9512 224.0153 -1237.044 -61.51803 232.456 -1237.036 -70.04876 227.6449 -1237.027 -64.31181 202.456 -1237.036 -70.04876 227.985 -1237.036 -60.0632 224.3549 -1193.035 -63.57536 232.456 -1193.036 -70.04876 227.054 -1193.007 -59.58932 202.456 -1193.036 -51.04876 202.456 -1193.036 -70.04876 228.3219 -1193.031 -63.63665 224.5382 -1000.048 -60.34435 202.455 -999.9672 -49.46494 228.3312 -1000.05 -60.59884 232.4617 -998.7025 -70.04891 202.4563 -1000.046 -70.04822 225.3144 -1000.039 -64.2366 228.3617 -1000.038 -63.49215 232.456 -956.0357 -70.04876 202.456 -956.0357 -70.04876 228.9137 -956.0196 -61.6864 232.4569 -956.7527 -47.76325 226.415 -956.032 -64.43682 202.4573 -956.4123 -47.9188 225.9765 -956.0352 -59.73226 223.9484 -956.032 -62.5255 209.4561 -1113.877 147.7993 225.456 -1114.036 145.8306 209.456 -1206.17 -47.04876 225.456 -1153.625 62.95124 225.456 -1206.17 -47.04876 225.456 -986.9006 -47.04876 225.456 -1039.446 62.95124 209.456 -986.9006 -47.04876 225.456 -1079.036 145.8306 209.456 -1079.167 147.7944 232.4536 -1236.412 -47.71418 225.456 -1223.901 -47.04876 202.4589 -1236.725 -47.7493 209.456 -1223.901 -47.04876 232.4564 -1193.596 -47.66417 225.456 -1171.357 62.95124 232.4572 -999.6166 -47.86347 202.456 -996.971 -47.10467 209.456 -969.1696 -47.04876 225.456 -969.1696 -47.04876 227.706 -1021.712 62.95102 228.456 -1171.357 62.95124 228.8193 -1110.693 147.9546 246.8094 -1111.023 161.7013 260.6251 -1111.038 164.3839 237.8879 -1111.024 167.5253 257.5625 -1111.036 175.9409 244.1504 -1111.029 170.4544 257.7514 -1111.047 155.652 248.5317 -1111.03 148.5709 240.2571 -1111.05 160.756 247.9357 -1111.025 167.3487 249.5193 -1114.038 148.7307 258.6132 -1114.036 157.0808 260.7009 -1114.046 166.5085 257.6363 -1114.036 175.3974 249.4888 -1114.023 182.1482 247.88 -1114.036 163.5388 247.0311 -1114.036 168.7145 237.552 -1114.055 165.6759 242.3099 -1114.049 170.7705 242.1412 -1114.086 160.2112 228.1843 -1079.353 147.9532 228.9827 -1082.189 147.849 228.4511 -1115.448 178.179 228.4512 -1077.623 178.1805 250.5157 -1079.022 149.0109 250.0082 -1082.062 149.1199 260.6142 -1082.021 160.2827 260.3308 -1079.042 160.851 259.0194 -1079.034 172.8977 258.3022 -1082.009 174.5962 250.5402 -1079.037 181.8817 249.3499 -1082.021 182.036 241.6052 -1078.984 160.26 248.023 -1079.035 163.5577 247.0652 -1079.036 168.5858 237.6447 -1079.042 166.6426 242.7811 -1079.021 170.6604 246.0216 -1082.045 160.967 237.5776 -1082.071 165.0338 241.1174 -1082.043 170.3258 240.8085 -1082.036 160.8432 247.6283 -1082.038 168.3509 -118.544 -986.9006 -47.04876 -102.544 -986.9006 -47.04876 -118.544 -1039.446 62.95124 -102.544 -1079.294 147.7039 -118.544 -1079.036 145.8306 -118.544 -1114.036 145.8306 -102.5439 -1113.818 147.6923 -118.544 -1153.625 62.95124 -102.544 -1206.17 -47.04876 -118.544 -1206.17 -47.04876 -118.544 -969.1696 -47.04876 -95.54331 -956.6904 -47.75279 -102.544 -969.1696 -47.04876 -118.544 -1021.714 62.95124 -102.544 -1223.901 -47.04876 -118.544 -1223.901 -47.04876 -118.544 -1171.357 62.95124 -121.544 -1021.714 62.95124 -121.544 -1171.357 62.95124 -140.6308 -1114.036 163.1707 -143.9299 -1114.027 181.8285 -144.2685 -1114.033 149.1595 -135.2796 -1114.067 160.1667 -140.462 -1114.042 168.5019 -153.4139 -1114.039 170.7198 -152.503 -1114.036 158.8535 -133.8099 -1114.031 170.4398 -130.8539 -1114.036 165.4486 -140.1531 -1111.034 148.1451 -148.2815 -1111.03 152.6468 -153.1394 -1111.045 160.4893 -152.9263 -1111.114 171.9093 -143.1505 -1111.053 181.8678 -137.2973 -1111.031 160.2812 -122.0864 -1110.731 147.9486 -139.354 -1111.02 169.6525 -131.7821 -1111.031 162.3935 -131.5648 -1111.028 168.5441 -140.9718 -1111.036 163.8933 -121.5205 -1115.041 178.2724 -121.5062 -1078.027 178.273 -122.0578 -1082.296 147.9068 -121.6987 -1079.18 147.501 -143.4871 -1082.075 149.0597 -146.5602 -1079.017 150.7956 -152.0686 -1082.043 157.6241 -154.2798 -1078.99 166.7909 -153.494 -1082.025 169.0809 -149.4804 -1082.036 177.0036 -148.4837 -1079.048 178.1441 -141.0553 -1082.004 182.6291 -135.881 -1082.051 170.82 -136.8784 -1082.046 160.0756 -130.4902 -1082.021 165.5397 -141.3556 -1082.062 165.9039 -138.9175 -1079.023 160.9521 -140.6171 -1079.036 168.408 -132.7192 -1079.036 161.4944 -130.9283 -1079.032 166.5519 -134.313 -1079.024 170.4299 -118.544 218.0989 -47.04876 -102.544 218.0989 -47.04876 -118.544 165.5544 62.95124 -102.544 125.7465 147.6906 -118.544 125.9648 145.8306 -118.544 90.96477 145.8306 -102.544 91.22367 147.7039 -118.544 51.37517 62.95124 -102.544 -1.169342 -47.04876 -118.544 -1.169342 -47.04876 -125.5439 248.5612 -47.89774 -118.544 235.8306 -47.04876 -95.5428 248.2796 -47.77899 -102.544 235.8306 -47.04876 -120.794 183.2868 62.95114 -95.54165 -31.34176 -47.79472 -102.544 -18.90103 -47.04876 -118.544 -18.90103 -47.04876 -95.54389 9.768834 -47.24028 -118.544 33.64346 62.95124 -121.544 33.64346 62.95124 -122.0387 122.6113 147.9515 -140.2602 122.9633 168.6206 -153.9965 122.9797 165.4689 -140.5183 122.9669 162.6582 -143.2386 122.9773 149.0399 -150.9302 122.9653 156.0526 -134.9542 122.9537 170.5194 -130.6179 122.9642 165.6717 -135.1387 122.9645 160.2171 -147.8859 122.9489 179.156 -143.8281 125.9589 148.9413 -153.7958 125.9618 162.1756 -149.9682 125.9803 176.8439 -140.4284 125.9656 182.5937 -131.5494 125.9658 168.6785 -138.2408 125.9753 160.3145 -131.8125 125.965 162.4563 -137.0445 125.9666 170.4328 -140.9297 125.9662 167.5536 -121.4896 89.95056 178.273 -121.4839 126.9812 178.2729 -140.3222 93.96489 148.2738 -141.8462 90.9686 148.6492 -150.8102 93.97831 155.0689 -152.2448 90.96828 157.5011 -153.4148 93.95663 170.1119 -152.5247 90.96244 172.7476 -143.4336 93.96056 182.0457 -141.9332 90.96482 182.3872 -122.103 94.34606 147.9443 -141.5245 90.96816 165.3059 -121.0091 91.40798 147.9419 -131.0234 90.96479 164.3164 -135.7604 90.9338 160.0237 -132.432 90.9567 169.2846 -137.7459 90.96347 170.3611 -138.0213 93.97869 160.4473 -138.6079 93.95639 170.0758 -130.8082 93.96923 163.7749 -133.3597 93.9637 169.9061 -141.207 93.96604 165.3033 232.456 -32.03522 -70.04876 232.4558 -31.47603 -47.78421 227.8701 -32.03885 -64.19439 202.456 -32.03522 -70.04876 223.9286 -32.0356 -61.66259 227.8892 -32.03949 -60.05071 232.456 11.96478 -70.04876 225.8838 11.973 -59.64604 202.456 11.96478 -70.04876 224.1964 11.96798 -63.08526 228.8149 11.97777 -63.19503 227.132 204.9485 -59.67845 232.456 204.9648 -70.04876 202.456 204.9648 -70.04876 224.0342 204.966 -62.35866 223.9785 248.9729 -61.59118 232.456 248.9648 -70.04876 202.456 248.9648 -70.04876 227.5671 248.9568 -64.36554 227.6394 248.9719 -59.91133 209.456 91.09613 147.7944 225.456 90.96477 145.8306 209.456 -1.169342 -47.04876 225.456 51.37517 62.95124 225.456 -1.169342 -47.04876 225.456 218.0989 -47.04876 225.456 165.5544 62.95124 209.456 218.0989 -47.04876 225.456 125.9648 145.8306 209.456 125.8057 147.7993 225.456 -18.90103 -47.04876 209.456 -18.90103 -47.04876 232.4556 11.37467 -47.7994 225.456 33.64346 62.95124 202.4557 205.3262 -47.94498 209.456 235.8306 -47.04876 232.4563 248.2825 -47.79397 225.456 235.8306 -47.04876 227.706 183.2871 62.95108 228.456 33.64346 62.95124 244.0661 125.941 159.9781 246.5446 125.9655 148.2321 248.1595 125.9657 165.5806 259.5285 125.9623 171.7721 260.3886 125.9821 162.0722 254.835 125.9412 152.0822 239.681 125.9651 169.4365 237.7658 125.962 164.4897 244.7162 125.9579 170.4992 250.9847 122.9876 149.1349 260.8222 122.9611 162.6008 256.8332 122.9489 176.613 247.5605 122.9968 182.7092 246.098 122.9622 169.7733 244.295 122.9477 160.3738 237.568 122.9663 164.0731 240.0629 122.9673 169.7603 248.0231 122.965 164.4887 228.9203 122.5112 147.944 228.1354 91.23459 147.9436 228.456 89.55165 178.1762 228.4534 127.3775 178.1817 229.0174 94.29579 147.9415 246.6783 90.96441 148.186 250.0254 93.94522 148.9573 254.9454 90.93172 152.4301 257.4967 93.96568 155.5463 260.4421 90.95992 162.1284 260.6711 93.96557 163.9912 258.3834 90.96165 174.5792 257.4461 93.96454 176.031 248.125 90.97673 182.5572 248.6716 93.96489 182.142 248.1856 93.96802 165.8975 245.5079 93.96595 169.8983 239.5985 93.9554 169.8645 238.2545 93.98281 163.2699 244.2673 93.95275 160.1274 243.8193 90.95172 160.315 248.4915 90.95906 165.6408 239.3314 90.96369 161.834 237.9428 90.96563 167.2896 243.5751 90.93614 170.6277 -95.54396 -998.0357 -52.04876 -119.8915 -998.0207 -52.24934 -125.5503 -998.0356 -54.95064 -125.5454 -958.4017 -49.40105 -121.164 -958.0355 -52.51066 -95.54724 -1194.951 -51.1827 -95.54396 -1235.068 -52.04218 -120.9932 -1235.023 -52.40298 -125.544 -1235.036 -55.04876 202.4687 -997.9758 -51.16593 202.4558 -957.9737 -52.02098 231.9861 -958.0302 -54.06087 232.4574 -1195.262 -49.58098 202.4561 -1194.965 -52.0168 232.1079 -1194.999 -54.17048 227.0131 -1235.054 -52.28759 202.456 -1235.052 -52.04494 -125.5488 9.647475 -49.49836 -125.1294 9.999907 -53.97854 -95.54278 10.16827 -51.70335 -95.54396 -30.03522 -52.04876 -120.3031 -30.03586 -52.31507 -125.5556 -30.03542 -54.98143 -95.54396 206.9648 -52.04876 -118.5774 206.9661 -52.12332 -125.5876 206.9507 -54.62194 -119.3801 246.9643 -52.22661 -95.54347 247.1134 -51.87432 202.4559 10.06788 -51.94277 232.0369 9.986385 -54.00852 232.3301 -30.07222 -54.27233 202.4509 -30.0845 -51.08862 232.0682 206.9759 -53.96289 202.4533 206.9214 -51.05472 202.4557 247.0893 -51.87115 232.0072 246.9427 -54.0265 -89.54334 -1195.03 -176.5487 -91.88418 -1195.037 -255.2631 -90.55104 -1195.036 -116.5901 -97.41686 -1195.044 -107.4018 -109.0367 -1195.036 -290.822 -99.55989 -1195.055 -280.9284 -105.3884 -1195.04 -274.8314 -99.33848 -1195.025 -273.3899 -96.33169 -1195.029 -260.8564 -87.54396 -1195.036 -117.0487 -111.2618 -1195.06 -264.1249 -97.41981 -1195.037 -277.3077 -125.544 -1195.036 -70.04876 -95.54396 -1195.036 -70.04876 -119.4649 -1195.086 -88.5655 -130.7919 -1195.053 -98.41385 -131.0977 -1195.114 -62.02888 -125.1666 -1195.065 -53.78766 -82.61637 -1196.211 -52.05464 -117.1927 -1195.098 -278.616 -119.6443 -1195.046 -95.17801 -121.6259 -1195.065 -106.5017 -112.7863 -1195.032 -94.51166 -113.3511 -1195.036 -89.21175 -104.6024 -1195.049 -279.9973 -97.85849 -998.039 -107.46 -112.3636 -998.0278 -93.02295 -100.2515 -998.0418 -272.8841 -111.9805 -998.1 -265.5273 -87.54396 -998.0357 -117.0487 -85.78898 -997.903 -52.04881 -95.54396 -998.0357 -70.04876 -92.16838 -998.0407 -112.8297 -89.54396 -998.0357 -117.0487 -91.74681 -998.0369 -254.6027 -89.54347 -998.0428 -176.5487 -97.8049 -998.0117 -279.5332 -116.7451 -998.0663 -280.601 -107.9808 -998.0471 -291.0166 -104.2947 -998.0392 -280.3657 -120.7467 -998.0284 -106.7673 -116.9153 -998.0352 -96.42522 -120.8305 -998.0529 -91.49833 -130.6532 -998.033 -98.93492 -125.544 -998.0357 -70.04876 -130.7872 -998.0322 -61.42506 -96.49653 -998.035 -261.2252 -115.6894 -998.0488 -87.77841 -105.2424 -998.0358 -275.1245 -92.28555 -1234.999 -112.3687 -112.654 -1235.066 -94.23886 -98.12115 -1235.035 -107.4316 -103.9016 -1235.037 -280.4382 -85.60842 -1235.026 -292.7904 -101.7346 -1235.035 -272.7893 -108.9973 -1234.997 -263.4058 -95.54396 -1235.036 -70.04876 -125.544 -1235.036 -70.04876 -91.86404 -1235.019 -255.8441 -116.9132 -1235.017 -274.3714 -111.1528 -1235.034 -289.6761 -105.8187 -1235.035 -276.5968 -86.54808 -1234.998 -52.04885 -99.8002 -1235.038 -280.8875 -117.8351 -1235.039 -96.08125 -120.7853 -1235.047 -90.68223 -131.1184 -1235.023 -97.40757 -122.4801 -1235.047 -106.2355 -130.616 -1234.992 -60.55086 -97.51795 -1235.028 -261.4155 -97.32956 -1235.044 -275.9924 -115.1034 -1235.042 -87.84017 -112.4556 -958.0347 -93.00334 -99.22588 -958.0371 -107.2111 -105.9882 -958.0289 -291.6289 -102.2483 -958.0177 -281.2177 -105.9113 -958.0281 -276.5527 -101.382 -958.0325 -272.9292 -97.76575 -958.0405 -275.0147 -96.80306 -958.0349 -261.0681 -116.5954 -957.9794 -96.29655 -95.54396 -958.0357 -70.04876 -92.33163 -958.0475 -111.836 -115.8762 -958.0439 -271.323 -107.7799 -958.0507 -263.0862 -125.544 -958.0357 -70.04876 -120.7701 -958.0187 -91.91157 -131.4048 -958.0303 -64.00967 -125.8672 -957.955 -54.99697 -86.52436 -958.0464 -292.05 -98.04845 -958.0357 -279.4295 -92.2345 -958.052 -256.4755 -85.55375 -958.1973 -52.04866 -115.3611 -958.0311 -284.1023 -123.7109 -958.0324 -105.7163 -130.8587 -958.0435 -97.47036 -113.4826 -958.0466 -89.27952 -117.2684 -958.0655 -87.85253 199.0746 -1195.035 -112.5102 204.7782 -1195.038 -107.5173 211.6977 -1195.035 -291.7444 209.9282 -1195.024 -281.0898 212.4313 -1195.035 -278.0109 209.7442 -1195.045 -272.583 194.456 -1195.036 -117.0487 202.456 -1195.036 -70.04876 196.456 -1195.036 -117.0487 199.1307 -1195.058 -256.7687 196.4559 -1195.038 -176.5487 204.2835 -1195.032 -261.1786 204.5548 -1195.044 -275.3684 205.0665 -1195.034 -279.4498 219.2596 -1195.032 -288.1137 217.8428 -1195.039 -264.8258 223.9353 -1194.993 -275.7861 225.5285 -1195.018 -96.15955 226.7187 -1195.035 -106.7857 238.3487 -1195.037 -94.74028 234.8179 -1195.043 -102.4537 226.6419 -1195.016 -89.08519 232.456 -1195.036 -70.04876 237.9433 -1195.087 -62.24666 221.0574 -1195.035 -88.63932 219.1705 -1195.025 -93.63184 196.4534 -998.0566 -176.5487 199.5193 -998.0481 -111.755 205.8027 -998.0385 -107.2371 215.6093 -998.036 -290.9471 210.8117 -998.0176 -280.7576 212.2248 -998.0075 -275.0012 213.3336 -998.0371 -262.5438 206.6174 -997.9488 -272.9721 228.2316 -998.0347 -106.6325 224.6412 -998.0487 -96.15721 196.456 -998.0357 -117.0487 194.456 -998.0357 -117.0487 223.2407 -998.0356 -280.7009 204.491 -997.9815 -278.8578 199.019 -998.0098 -256.4343 235.7298 -996.798 -101.1454 238.2622 -998.0369 -94.9523 227.5847 -998.0408 -92.24874 202.456 -998.0357 -70.04876 222.0328 -998.0855 -269.8146 219.5288 -998.0618 -93.84744 232.1706 -998.0393 -53.97937 238.1929 -998.005 -62.47894 220.697 -998.0625 -88.99415 225.3171 -998.0459 -88.15082 204.5471 -998.036 -261.3677 205.3839 -1235.037 -107.2707 219.1878 -1235.052 -91.42594 215.2521 -1235.037 -291.0216 211.3975 -1235.034 -280.2924 203.5084 -1235.044 -261.2101 208.1761 -1235.032 -272.7478 226.3087 -1235.036 -95.43679 202.456 -1235.036 -70.04876 199.1096 -1235.043 -112.5209 223.0105 -1235.043 -87.83224 227.3072 -1235.051 -89.96575 193.2519 -1235.051 -292.0453 223.1032 -1235.052 -281.5988 228.3526 -1235.003 -106.4855 237.2603 -1234.998 -99.20363 205.7338 -1235.036 -280.1514 204.2985 -1235.02 -275.8909 198.7277 -1235.037 -255.3222 222.2722 -1233.807 -269.9459 215.5252 -1235.019 -263.4535 221.2267 -1235.036 -95.52252 232.456 -1235.036 -70.04876 232.5829 -1235.036 -54.97638 238.0953 -1235.063 -62.21749 211.8397 -1235.036 -274.6032 199.0812 -958.0335 -112.3856 205.1236 -958.0393 -107.4326 212.4645 -958.0376 -278.3114 226.1873 -958.0378 -95.28417 202.456 -958.0357 -70.04876 232.456 -958.0357 -70.04876 221.3354 -958.0224 -95.69059 228.2219 -958.0355 -106.6466 193.4454 -958.0384 -292.1535 199.3296 -958.0239 -257.0617 205.0461 -958.048 -274.1142 221.6299 -958.0357 -284.6277 218.4115 -958.0253 -265.0759 223.7731 -958.0397 -276.1237 207.1277 -958.0144 -281.254 214.1957 -958.0402 -291.2666 237.9284 -958.0313 -97.96069 227.6898 -958.0339 -91.29683 237.5744 -958.0222 -61.01602 205.8212 -958.0316 -261.6958 224.6763 -958.0332 -88.09234 219.6377 -958.03 -89.6652 211.4629 -958.0601 -273.9687 -96.36833 9.944101 -108.0673 -99.90075 9.965931 -273.1554 -105.6117 9.973585 -278.0455 -106.864 9.960946 -262.758 -90.56124 9.970198 -117.0127 -95.54396 9.964783 -70.04876 -86.04686 9.844882 -52.04875 -89.54396 9.964783 -176.5487 -86.02016 9.990326 -292.0859 -106.7623 9.957254 -291.5625 -91.91566 9.964784 -255.2214 -87.54396 9.964783 -176.5487 -116.229 9.935336 -271.4924 -115.0763 9.985087 -284.0225 -102.1187 9.965478 -281.139 -97.29772 9.956704 -278.5118 -124.0898 9.960663 -105.8334 -113.7082 9.976804 -95.39757 -119.9855 9.964882 -94.54763 -131.1427 9.964872 -96.21486 -131.1322 10.00249 -62.44052 -125.544 9.964783 -70.04876 -96.15026 9.963198 -260.7887 -113.2018 9.96354 -89.59974 -118.9946 9.950698 -88.28483 -104.0028 9.962796 -273.7212 -91.77104 206.9635 -254.8162 -89.54377 206.96 -176.5487 -97.00531 206.9577 -107.8216 -112.4771 206.9672 -92.80918 -103.6389 206.9488 -280.8641 -105.1132 206.964 -274.4325 -109.1646 206.972 -263.7074 -97.71869 206.9712 -279.0957 -87.54396 206.9648 -117.0487 -116.1629 206.9532 -272.671 -96.65412 206.9508 -261.1306 -125.544 206.9648 -70.04876 -131.0112 206.9656 -62.41238 -131.0189 206.9618 -97.2137 -118.9093 206.9644 -88.63143 -95.54396 206.9648 -70.04876 -90.43188 206.9805 -116.6238 -114.8677 206.9459 -285.1182 -105.6951 206.9636 -291.6119 -122.7266 206.9876 -106.2929 -120.7195 206.9748 -93.80419 -115.1489 206.9496 -95.95941 -114.162 206.9487 -88.50498 -99.24151 206.9575 -273.4912 -97.52518 -30.0375 -107.6555 -113.6902 -30.04281 -95.34531 -105.1101 -30.02697 -279.5602 -105.0047 -30.03523 -274.6942 -97.3949 -30.03555 -277.2786 -95.54396 -30.03522 -70.04876 -92.06413 -30.03754 -113.2369 -112.297 -30.04023 -266.1846 -117.0237 -30.01626 -277.095 -125.544 -30.03522 -70.04876 -130.6163 -30.02989 -60.94998 -131.1837 -30.04258 -96.41427 -120.0513 -30.02653 -89.4682 -92.535 -30.003 -257.7395 -99.82068 -30.0366 -280.8868 -110.1508 -30.05473 -290.0807 -102.8307 -30.06612 -262.2473 -123.2884 -30.02082 -106.0983 -119.5684 -30.03886 -95.05682 -113.6998 -30.05169 -88.77639 -99.9099 -30.04022 -272.9133 -97.07669 246.9569 -107.6433 -114.0152 246.9726 -88.53112 -95.54396 246.9648 -70.04876 -91.78686 246.9646 -114.0865 -125.544 246.9648 -70.04876 -86.63021 246.9958 -292.6102 -97.36798 246.9664 -276.7687 -91.87518 246.9633 -255.0715 -119.8215 246.9644 -106.832 -105.0585 246.9785 -279.4418 -116.6156 246.9818 -275.0166 -110.3012 246.933 -264.0122 -107.0412 246.9626 -291.18 -114.533 246.9566 -285.2981 -85.99864 246.8926 -52.04877 -99.70364 246.9622 -280.9822 -116.4524 246.9639 -96.26103 -112.958 246.9639 -94.11325 -120.3832 246.9709 -93.71719 -129.7274 246.9622 -100.3859 -131.0353 244.966 -62.05604 -125.6817 246.9922 -54.78535 -95.97365 246.978 -260.6657 -119.6902 246.9619 -89.30931 -100.61 246.9849 -272.9475 -105.0551 246.9643 -274.7898 199.2289 9.959126 -256.5909 196.4508 9.985623 -176.5487 212.5076 9.964626 -278.1136 214.3332 9.970521 -291.1102 214.7342 9.946895 -263.0287 210.6835 9.954008 -273.3807 228.3096 9.945244 -106.625 225.5977 9.976366 -95.88025 194.456 9.964783 -117.0487 221.1862 9.965743 -285.2991 205.05 9.965089 -261.5811 204.5415 9.966002 -275.0499 207.3042 9.994668 -281.3174 237.7124 9.952054 -98.13282 202.456 9.964783 -70.04876 203.042 9.966015 -108.2068 197.5222 9.977067 -117.0199 223.8147 9.979557 -274.0432 220.6117 9.966302 -95.08367 232.456 9.964783 -70.04876 237.8164 9.970046 -61.92248 226.6432 9.985481 -89.00067 219.715 9.971894 -89.81264 205.8448 206.9599 -107.251 228.3139 206.9599 -106.4544 206.4261 206.9649 -273.4772 196.4513 206.9555 -117.0487 199.483 206.954 -111.9461 202.456 206.9648 -70.04876 196.456 206.9648 -176.5487 219.1483 206.9668 -92.23562 210.833 206.964 -291.9426 204.2619 206.9615 -276.8955 202.7688 206.9654 -260.7047 198.5924 206.9652 -254.2965 194.456 206.9648 -176.5487 220.0031 206.93 -287.3299 223.7592 206.9655 -275.8725 216.9948 206.9916 -263.7696 206.6158 206.9576 -280.7694 223.5776 206.9686 -96.46032 237.1753 206.9693 -99.2047 237.902 206.9675 -61.87373 232.456 206.9648 -70.04876 210.9326 206.9553 -273.5516 223.8346 206.9322 -87.65161 227.6929 206.9694 -92.54082 211.9902 206.9727 -279.6634 219.1046 -30.04945 -92.87088 205.6179 -30.03657 -107.291 231.6821 -30.0403 -105.2946 207.4917 -30.02106 -272.7762 202.6489 -30.03277 -260.5762 202.456 -30.03522 -70.04876 199.3775 -30.04812 -112.2832 232.456 -30.03522 -70.04876 193.4501 -30.02037 -292.0488 214.5686 -30.03378 -291.2931 198.5768 -30.03317 -254.1855 223.28 -30.04326 -281.2238 221.1428 -30.05831 -268.2427 212.8288 -30.0341 -262.494 210.2986 -30.02167 -281.2033 204.2907 -30.04384 -278.0281 238.0209 -30.03552 -96.23664 238.0725 -28.37338 -62.61003 225.9636 -30.03105 -95.74614 212.2402 -30.03738 -275.1817 222.8586 -30.03544 -87.96311 226.8706 -30.04446 -89.61545 204.4587 246.9573 -107.6031 212.8789 246.9532 -278.0117 212.0932 246.9673 -291.7098 208.3006 246.9677 -272.7215 215.7674 246.9659 -263.445 204.5688 246.9648 -275.6344 227.5084 246.9676 -90.32448 231.2039 246.9319 -105.8391 225.3296 246.964 -95.70125 202.456 246.9648 -70.04876 221.2747 246.9659 -88.36106 220.0024 246.9772 -94.76694 198.7776 246.9643 -113.4881 220.1446 246.9957 -286.9914 238.1808 246.9654 -95.79948 198.7588 245.7092 -255.2795 202.99 246.9498 -260.8182 206.1915 246.9832 -280.8297 223.8065 246.964 -274.7008 232.456 246.9648 -70.04876 237.8503 246.9577 -61.86665 -117.044 90.96477 149.3106 -104.044 90.96477 149.3106 -117.044 90.96477 179.4711 -104.044 90.96477 179.4711 210.956 90.96477 149.3106 223.956 90.96477 149.3106 210.956 90.964